Version 4
SHEET 1 1220 680
WIRE 144 48 80 48
WIRE 448 48 400 48
WIRE 544 48 448 48
WIRE 80 64 80 48
WIRE -672 80 -752 80
WIRE -336 80 -416 80
WIRE 400 112 400 48
WIRE 448 128 448 48
WIRE -752 144 -752 80
WIRE 80 192 80 64
WIRE 272 224 272 144
WIRE 448 224 448 208
WIRE 448 224 272 224
WIRE 272 240 272 224
WIRE -752 304 -752 224
WIRE -544 304 -544 176
WIRE 80 352 80 272
WIRE 272 352 272 320
FLAG -752 304 0
FLAG -544 304 0
FLAG 272 352 0
FLAG 80 352 0
DATAFLAG 80 64 ""
SYMBOL 7805 -544 80 R0
SYMATTR InstName U1
SYMBOL voltage -752 128 R0
WINDOW 123 0 0 Left 2
WINDOW 39 0 0 Left 2
SYMATTR InstName V2
SYMATTR Value 9
SYMBOL voltage 80 176 R0
WINDOW 123 0 0 Left 2
WINDOW 39 0 0 Left 2
SYMATTR InstName V3
SYMATTR Value 9
SYMBOL res 256 224 R0
SYMATTR InstName R3
SYMATTR Value 360
SYMBOL res 432 112 R0
SYMATTR InstName R4
SYMATTR Value 240
SYMBOL LMM317 272 48 R0
SYMATTR InstName U3
TEXT -256 280 Left 2 !.tran 100ms
