Version 4
SHEET 1 880 680
WIRE -32 48 -144 48
WIRE -32 64 -32 48
WIRE -144 112 -144 48
WIRE -32 176 -32 144
WIRE -144 256 -144 192
WIRE -32 256 -32 240
WIRE -32 256 -144 256
WIRE -32 288 -32 256
FLAG -32 288 0
SYMBOL res -48 48 R0
SYMATTR InstName R1
SYMATTR Value 170
SYMBOL voltage -144 96 R0
SYMATTR InstName V1
SYMATTR Value 9V
SYMBOL zener -16 240 R180
WINDOW 0 24 64 Left 2
WINDOW 3 -190 6 Left 2
SYMATTR InstName D1
SYMATTR Value BZX84C4V7/ZTX
TEXT 64 104 Left 2 !.op
TEXT 64 136 Left 2 !.lib ".\\zetex.lib"
TEXT 200 216 Left 2 ;copier zetex.lib dans votre projet\nrajoutez un symbol  zener\npuis CTRL+clic droit\nmettre la référence dans value: BZX.....\ncliquez .op et tapez .lib ".\\zetex.lib"
