Version 4
SHEET 1 880 680
WIRE 128 -16 0 -16
WIRE 128 16 128 -16
WIRE 0 48 0 -16
WIRE 128 128 128 96
WIRE 192 128 128 128
WIRE 128 144 128 128
WIRE 0 256 0 128
WIRE 64 256 0 256
WIRE 128 256 128 224
WIRE 128 256 64 256
WIRE 64 272 64 256
FLAG 64 272 0
FLAG 192 128 Vs
SYMBOL res 112 0 R0
SYMATTR InstName R2
SYMATTR Value {R}
SYMBOL res 112 128 R0
SYMATTR InstName R3
SYMATTR Value 10k
SYMBOL voltage 0 32 R0
SYMATTR InstName V1
SYMATTR Value 10V
TEXT -32 296 Left 2 !.op
TEXT 200 264 Left 2 !.STEP PARAM R 5k 20k 2k
TEXT 264 128 Left 2 ;Exemple de simulation paramétrée\nvariation par par de 2k\n.op = seul le point de repos est calculé
